/*--------------------------------*- C++ -*----------------------------------*\
  =========                 |
  \\      /  F ield         | OpenFOAM: The Open Source CFD Toolbox
   \\    /   O peration     | Website:  https://openfoam.org
    \\  /    A nd           | Version:  8
     \\/     M anipulation  |
\*---------------------------------------------------------------------------*/
FoamFile
{
    version     2.0;
    format      ascii;
    class       polyBoundaryMesh;
    location    "1/polyMesh";
    object      boundary;
}
// * * * * * * * * * * * * * * * * * * * * * * * * * * * * * * * * * * * * * //

5
(
    allBoundary
    {
        type            patch;
        nFaces          0;
        startFace       53440;
    }
    flange_patch1
    {
        type            wall;
        inGroups        List<word> 1(wall);
        nFaces          9624;
        startFace       53440;
    }
    flange_patch2
    {
        type            wall;
        inGroups        List<word> 1(wall);
        nFaces          1182;
        startFace       63064;
    }
    flange_patch3
    {
        type            wall;
        inGroups        List<word> 1(wall);
        nFaces          248;
        startFace       64246;
    }
    flange_patch4
    {
        type            wall;
        inGroups        List<word> 1(wall);
        nFaces          1478;
        startFace       64494;
    }
)

// ************************************************************************* //
