/*--------------------------------*- C++ -*----------------------------------*\
  =========                 |
  \\      /  F ield         | OpenFOAM: The Open Source CFD Toolbox
   \\    /   O peration     | Website:  https://openfoam.org
    \\  /    A nd           | Version:  8
     \\/     M anipulation  |
\*---------------------------------------------------------------------------*/
FoamFile
{
    version     2.0;
    format      ascii;
    class       polyBoundaryMesh;
    location    "2/polyMesh";
    object      boundary;
}
// * * * * * * * * * * * * * * * * * * * * * * * * * * * * * * * * * * * * * //

4
(
    flange_patch1
    {
        type            wall;
        inGroups        List<word> 1(wall);
        nFaces          7430;
        startFace       53440;
    }
    flange_patch2
    {
        type            wall;
        inGroups        List<word> 1(wall);
        nFaces          1168;
        startFace       60870;
    }
    flange_patch3
    {
        type            wall;
        inGroups        List<word> 1(wall);
        nFaces          238;
        startFace       62038;
    }
    flange_patch4
    {
        type            wall;
        inGroups        List<word> 1(wall);
        nFaces          1184;
        startFace       62276;
    }
)

// ************************************************************************* //
